Circuit: * E:\Dev\LED-display\hardware\LED-sim\LED-white-sim.asc

WARNING: Less than two connections to node NC_01.  This node is used by R1.
.OP point found by inspection.

Date: Wed Feb 23 19:35:18 2022
Total elapsed time: 0.043 seconds.

tnom = 27
temp = 27
method = modified trap
totiter = 2165
traniter = 2165
tranpoints = 1067
accept = 1067
rejected = 0
matrix size = 12
fillins = 0
solver = Normal
Matrix Compiler1: 284 bytes object code size  0.1/0.0/[0.0]
Matrix Compiler2: 790 bytes object code size  0.1/0.1/[0.0]

